LAMMPS (29 Aug 2024 - Update 2)
package gpu 1

#Initiailzaion
units 				metal
atom_style 			atomic
boundary 			p p p
read_data 			cnt.data
Reading data file ...
  orthogonal box = (-40 -40 -222.13041) to (40 40 277.86959)
  reading atoms ...
  700 atoms
pair_style 			airebo 3 1 1  #Source for cutoff(https://matsci.org/t/airebo-force-field-for-graphene/33406/4)
pair_coeff 			* * CH.airebo C
Reading airebo potential file CH.airebo with DATE: 2011-10-25

#Defining clamp/grip and mid regions
group 				cnt type 1
700 atoms in group cnt
variable 			zmax equal bound(cnt,zmax)-0.5
variable 			zmin equal bound(cnt,zmin)+0.5
region 				top block INF INF INF INF 55.239178 INF
group 				top region top
10 atoms in group top
region 				bot block INF INF INF INF INF 0.5
group 				bot region bot
10 atoms in group bot
region 				mid block INF INF INF INF 0.5 55.239178
group 				mid region mid
680 atoms in group mid

#Visualization
thermo				100
timestep 			0.0005
dump 				dump all atom 100 dump.visualition

velocity 			mid create 300 12345 mom yes rot yes  #Only motion of mid section atoms matter, which have to start moving as if they were in ambient conditions ,i.e., at 300K
fix 				nve all nve 			      #UTM has this case
compute 			Tmid mid temp 			      #Computing the only temperature that matters and using this to fluctuate the temperature of the entire cell
fix myber 			mid temp/berendsen 300 300 0.1        #Berensden not due to any particular reason. studied it in course.
fix_modify 			myber temp Tmid			      #Using temperature of mid section to control that of entire cell

#Oly for equilibration
fix 				topforce bot setforce 0 0 0	      #In clamp
fix 				topforce top setforce 0 0 0	      #In Clamp
velocity 			bot set 0 0 0
velocity 			top set 0 0 0

#Equilibiration
run 				5000

CITE-CITE-CITE-CITE-CITE-CITE-CITE-CITE-CITE-CITE-CITE-CITE-CITE

Your simulation uses code contributions which should be cited:

- GPU package (short-range, long-range and three-body potentials): doi:10.1016/j.cpc.2010.12.021, doi:10.1016/j.cpc.2011.10.012, doi:10.1016/j.cpc.2013.08.002, doi:10.1016/j.commatsci.2014.10.068, doi:10.1016/j.cpc.2016.10.020, doi:10.3233/APC200086

@Article{Brown11,
 author = {W. M. Brown and P. Wang and S. J. Plimpton and A. N. Tharrington},
 title = {Implementing Molecular Dynamics on Hybrid High Performance Computers---Short Range Forces},
 journal = {Comput.\ Phys.\ Commun.},
 year =    2011,
 volume =  182,
 pages =   {898--911},
 doi =     {10.1016/j.cpc.2010.12.021}
}

@Article{Brown12,
 author = {W. M. Brown and A. Kohlmeyer and S. J. Plimpton and A. N. Tharrington},
 title = {Implementing Molecular Dynamics on Hybrid High Performance Computers - Particle-Particle Particle-Mesh},
 journal = {Comput.\ Phys.\ Commun.},
 year =    2012,
 volume =  183,
 doi =     {10.1016/j.cpc.2011.10.012},
 pages =   {449--459}
}

@Article{Brown13,
 author = {W. M. Brown and Y. Masako},
 title = {Implementing Molecular Dynamics on Hybrid High Performance Computers---Three-Body Potentials},
 journal = {Comput.\ Phys.\ Commun.},
 year =    2013,
 volume =  184,
 pages =   {2785--2793},
 doi =     {10.1016/j.cpc.2013.08.002},
}

@Article{Trung15,
 author = {T. D. Nguyen and S. J. Plimpton},
 title = {Accelerating Dissipative Particle Dynamics Simulations for Soft Matter Systems},
 journal = {Comput.\ Mater.\ Sci.},
 year =    2015,
 doi =     {10.1016/j.commatsci.2014.10.068},
 volume =  100,
 pages =   {173--180}
}

@Article{Trung17,
 author = {T. D. Nguyen},
 title = {{GPU}-Accelerated {T}ersoff Potentials for Massively Parallel
    Molecular Dynamics Simulations},
 journal = {Comput.\ Phys.\ Commun.},
 year =    2017,
 doi =     {10.1016/j.cpc.2016.10.020},
 volume =  212,
 pages =   {113--122}
}

@inproceedings{Nikolskiy19,
 author = {V. Nikolskiy and V. Stegailov},
 title = {{GPU} Acceleration of Four-Site Water Models in {LAMMPS}},
 booktitle = {Proceedings of the International Conference on Parallel
    Computing (ParCo 2019), Prague, Czech Republic},
 doi =     {10.3233/APC200086},
 year =    2019
}

CITE-CITE-CITE-CITE-CITE-CITE-CITE-CITE-CITE-CITE-CITE-CITE-CITE

Step          Temp          E_pair         E_mol          TotEng         Press
0   291.41631     -5084.8687      0             -5058.5384     -170.95196
Averages over the last 26 of 51 rows, steps 2500 to 5000:
Temp E_pair E_mol TotEng Press
297.906 -5068.43 0 -5041.52 -3.87023
Loop time of 20.7841 on 5 procs for 5000 steps with 700 atoms

#Deformation
velocity top set 0 0 0.15
run 280000
Step          Temp          E_pair         E_mol          TotEng         Press
5000   305.94887     -5070.013       0             -5042.3697     -24.222677
Averages over the last 1401 of 2801 rows, steps 145000 to 285000:
Temp E_pair E_mol TotEng Press
295.6 -5068.46 0 -5041.75 -0.939615
Loop time of 1094.69 on 5 procs for 280000 steps with 700 atoms
